Adding a Comment.
new line.. testing again.
testing commit messages
Created a new branch named badal_test (I guess thats correct name).
