Adding a Comment.
new line.. testing again.
testing commit messages
