Adding a Comment.
new line.. testing again.
